[TITLE]


[OPTIONS]
AREA_UNITS     FT2
RATE_UNITS     HR
SOLVER     RK5
TIMESTEP     300
ATOL     0.001
RTOL     0.001

[SPECIES]
BULK CL2 MG 0.01 0.001
BULK P CFU 0.01 0.001
BULK C_FRA MG 0.01 0.001
BULK C_SRA MG 0.01 0.001

[COEFFICIENTS]
CONSTANT T 12
CONSTANT Kp 157
CONSTANT A 1
CONSTANT B 14 

[TERMS]
Km (1.5826e-04 * RE^0.88 )/ D
KWAL A*EXP(-B*CL2)
K_FAST 0.2808
K_SLOW 0.0071

[PIPES]
RATE CL2 -K_FAST*C_FRA*CL2-K_SLOW*C_SRA*CL2-((4/D)*(KWAL/(1+KWAL/Km)))*CL2
RATE P -Kp*P*CL2
RATE C_FRA -K_FAST*C_FRA*CL2
RATE C_SRA -K_SLOW*C_SRA*CL2

[TANKS]
RATE CL2 -K_FAST*C_FRA*CL2-K_SLOW*C_SRA*CL2
RATE P -Kp*P*CL2
RATE C_FRA -K_FAST*C_FRA*CL2
RATE C_SRA -K_SLOW*C_SRA*CL2

[SOURCES]
SETPOINT R1 CL2 0.5 CL2PAT
SETPOINT R1 C_SRA 1.85 C_SRA_REPAT
SETPOINT R2 CL2 0.5 CL2PAT
SETPOINT R2 C_SRA 1.85 C_SRA_REPAT

[QUALITY]

[PARAMETERS]
PIPE p1 A 0.01
PIPE p2 A 0.9684
PIPE p3 A 0.01
PIPE p4 A 0.55504
PIPE p5 A 0.01
PIPE p6 A 0.01
PIPE p7 A 0.01
PIPE p8 A 0.01
PIPE p9 A 0.38918
PIPE p10 A 0.01
PIPE p11 A 0.01
PIPE p12 A 0.01
PIPE p13 A 0.01
PIPE p14 A 0.01
PIPE p15 A 0.01
PIPE p16 A 0.01
PIPE p17 A 0.01
PIPE p18 A 0.01
PIPE p19 A 0.01
PIPE p20 A 0.01
PIPE p21 A 0.01
PIPE p22 A 0.01
PIPE p23 A 0.01
PIPE p24 A 0.01
PIPE p25 A 0.01
PIPE p26 A 0.01
PIPE p27 A 0.01
PIPE p28 A 0.01
PIPE p29 A 0.01
PIPE p30 A 0.01
PIPE p31 A 0.01
PIPE p32 A 0.01
PIPE p33 A 0.01
PIPE p34 A 0.01
PIPE p35 A 0.25423
PIPE p36 A 0.69903
PIPE p37 A 0.084501
PIPE p38 A 0.01
PIPE p39 A 0.01
PIPE p40 A 0.37897
PIPE p41 A 0.01
PIPE p42 A 0.34478
PIPE p43 A 0.83607
PIPE p44 A 0.52857
PIPE p45 A 0.91815
PIPE p46 A 0.85797
PIPE p47 A 0.53469
PIPE p48 A 0.80122
PIPE p49 A 0.01
PIPE p50 A 0.8347
PIPE p51 A 0.90732
PIPE p52 A 0.90574
PIPE p53 A 0.01
PIPE p54 A 0.01
PIPE p55 A 0.01
PIPE p56 A 0.01
PIPE p57 A 0.01
PIPE p58 A 0.01
PIPE p59 A 0.01
PIPE p60 A 0.01
PIPE p61 A 0.01
PIPE p62 A 0.01
PIPE p63 A 0.01
PIPE p64 A 0.01
PIPE p65 A 0.22821
PIPE p66 A 0.01
PIPE p67 A 0.01
PIPE p68 A 0.01
PIPE p69 A 0.01
PIPE p70 A 0.01
PIPE p71 A 0.01
PIPE p72 A 0.55516
PIPE p73 A 0.97689
PIPE p74 A 0.7965
PIPE p75 A 0.13862
PIPE p76 A 0.01473
PIPE p77 A 0.01
PIPE p78 A 0.48883
PIPE p79 A 0.01
PIPE p80 A 0.01
PIPE p81 A 0.01
PIPE p82 A 0.01
PIPE p83 A 0.01
PIPE p84 A 0.01
PIPE p85 A 0.01
PIPE p86 A 0.096236
PIPE p87 A 0.01
PIPE p88 A 0.01
PIPE p89 A 0.01
PIPE p90 A 0.01
PIPE p91 A 0.01
PIPE p92 A 0.01
PIPE p93 A 0.01
PIPE p94 A 0.01
PIPE p95 A 0.01
PIPE p96 A 0.01
PIPE p97 A 0.01
PIPE p98 A 0.01
PIPE p99 A 0.01
PIPE p100 A 0.01
PIPE p101 A 0.01
PIPE p102 A 0.01
PIPE p103 A 0.01
PIPE p104 A 0.01
PIPE p105 A 0.01
PIPE p106 A 0.01
PIPE p107 A 0.01
PIPE p108 A 0.01
PIPE p109 A 0.01
PIPE p110 A 0.01
PIPE p111 A 0.01
PIPE p112 A 0.01
PIPE p113 A 0.01
PIPE p114 A 0.01
PIPE p115 A 0.01
PIPE p116 A 0.01
PIPE p117 A 0.01
PIPE p118 A 0.01
PIPE p119 A 0.01
PIPE p120 A 0.01
PIPE p121 A 0.01
PIPE p122 A 0.01
PIPE p123 A 0.01
PIPE p124 A 0.01
PIPE p125 A 0.01
PIPE p126 A 0.01
PIPE p127 A 0.01
PIPE p128 A 0.01
PIPE p129 A 0.01
PIPE p130 A 0.01
PIPE p131 A 0.01
PIPE p132 A 0.01
PIPE p133 A 0.01
PIPE p134 A 0.01
PIPE p135 A 0.01
PIPE p136 A 0.01
PIPE p137 A 0.01
PIPE p138 A 0.01
PIPE p139 A 0.01
PIPE p140 A 0.01
PIPE p141 A 0.01
PIPE p142 A 0.01
PIPE p143 A 0.01
PIPE p144 A 0.01
PIPE p145 A 0.83483
PIPE p146 A 0.24865
PIPE p147 A 0.51266
PIPE p148 A 0.90846
PIPE p149 A 0.51594
PIPE p150 A 0.29695
PIPE p151 A 0.50077
PIPE p152 A 0.24971
PIPE p153 A 0.01
PIPE p154 A 0.01
PIPE p155 A 0.45037
PIPE p156 A 0.01
PIPE p157 A 0.15766
PIPE p158 A 0.01
PIPE p159 A 0.45405
PIPE p160 A 0.88735
PIPE p161 A 0.01
PIPE p162 A 0.68449
PIPE p163 A 0.01
PIPE p164 A 0.01
PIPE p165 A 0.01
PIPE p166 A 0.01
PIPE p167 A 0.01
PIPE p168 A 0.01
PIPE p169 A 0.01
PIPE p170 A 0.01
PIPE p171 A 0.01
PIPE p172 A 0.01
PIPE p173 A 0.01
PIPE p174 A 0.01
PIPE p175 A 0.01
PIPE p176 A 0.01
PIPE p177 A 0.01
PIPE p178 A 0.01
PIPE p179 A 0.82838
PIPE p180 A 0.6749
PIPE p181 A 0.66833
PIPE p182 A 0.01
PIPE p183 A 0.01
PIPE p184 A 0.01
PIPE p185 A 0.01
PIPE p186 A 0.21862
PIPE p187 A 0.01
PIPE p188 A 0.01
PIPE p189 A 0.01
PIPE p190 A 0.01
PIPE p191 A 0.01
PIPE p192 A 0.01
PIPE p193 A 0.01
PIPE p194 A 0.01
PIPE p195 A 0.99554
PIPE p196 A 0.01
PIPE p197 A 0.01
PIPE p198 A 0.01
PIPE p199 A 0.01
PIPE p200 A 0.01
PIPE p201 A 0.01
PIPE p202 A 0.01
PIPE p203 A 0.01
PIPE p204 A 0.01
PIPE p205 A 0.01
PIPE p206 A 0.01
PIPE p207 A 0.030839
PIPE p208 A 0.01
PIPE p209 A 0.01
PIPE p210 A 0.01
PIPE p211 A 0.01
PIPE p212 A 0.01
PIPE p213 A 0.01
PIPE p214 A 0.01
PIPE p215 A 0.01
PIPE p216 A 0.3094
PIPE p217 A 0.01
PIPE p218 A 0.01
PIPE p219 A 0.01
PIPE p220 A 0.01
PIPE p221 A 0.01
PIPE p222 A 0.01
PIPE p223 A 0.01
PIPE p224 A 0.01
PIPE p225 A 0.01
PIPE p226 A 0.01
PIPE p227 A 0.01
PIPE p228 A 0.01
PIPE p229 A 0.53167
PIPE p230 A 0.28421
PIPE p231 A 0.01
PIPE p232 A 0.01
PIPE p233 A 0.01
PIPE p234 A 0.01
PIPE p235 A 0.01
PIPE p236 A 0.50984
PIPE p237 A 0.01
PIPE p238 A 0.01
PIPE p239 A 0.01
PIPE p240 A 0.01
PIPE p241 A 0.01
PIPE p242 A 0.01
PIPE p243 A 0.01
PIPE p244 A 0.01
PIPE p245 A 0.01
PIPE p246 A 0.01
PIPE p247 A 0.01
PIPE p248 A 0.01
PIPE p249 A 0.01
PIPE p250 A 0.01
PIPE p251 A 0.01
PIPE p252 A 0.01
PIPE p253 A 0.01
PIPE p254 A 0.01
PIPE p255 A 0.01
PIPE p256 A 0.01
PIPE p257 A 0.01
PIPE p258 A 0.01
PIPE p259 A 0.01
PIPE p260 A 0.01
PIPE p261 A 0.01
PIPE p262 A 0.01
PIPE p263 A 0.01
PIPE p264 A 0.01
PIPE p265 A 0.01
PIPE p266 A 0.01
PIPE p267 A 0.01
PIPE p268 A 0.01
PIPE p269 A 0.01
PIPE p270 A 0.01
PIPE p271 A 0.01
PIPE p272 A 0.01
PIPE p273 A 0.01
PIPE p274 A 0.01
PIPE p275 A 0.01
PIPE p276 A 0.01
PIPE p277 A 0.01
PIPE p278 A 0.01
PIPE p279 A 0.01
PIPE p280 A 0.01
PIPE p281 A 0.01
PIPE p282 A 0.01
PIPE p283 A 0.01
PIPE p284 A 0.01
PIPE p285 A 0.01
PIPE p286 A 0.01
PIPE p287 A 0.01
PIPE p288 A 0.01
PIPE p289 A 0.01
PIPE p290 A 0.01
PIPE p291 A 0.01
PIPE p292 A 0.01
PIPE p293 A 0.01
PIPE p294 A 0.01
PIPE p295 A 0.01
PIPE p296 A 0.01
PIPE p297 A 0.01
PIPE p298 A 0.01
PIPE p299 A 0.01
PIPE p300 A 0.01
PIPE p301 A 0.01
PIPE p302 A 0.01
PIPE p303 A 0.01
PIPE p304 A 0.01
PIPE p305 A 0.01
PIPE p306 A 0.01
PIPE p307 A 0.01
PIPE p308 A 0.01
PIPE p309 A 0.01
PIPE p310 A 0.01
PIPE p311 A 0.01
PIPE p312 A 0.01
PIPE p313 A 0.01
PIPE p314 A 0.01
PIPE p315 A 0.01
PIPE p316 A 0.01
PIPE p317 A 0.01
PIPE p318 A 0.01
PIPE p319 A 0.01
PIPE p320 A 0.01
PIPE p321 A 0.01
PIPE p322 A 0.01
PIPE p323 A 0.01
PIPE p324 A 0.01
PIPE p325 A 0.01
PIPE p326 A 0.01
PIPE p327 A 0.01
PIPE p328 A 0.01
PIPE p329 A 0.01
PIPE p330 A 0.01
PIPE p331 A 0.01
PIPE p332 A 0.01
PIPE p333 A 0.01
PIPE p334 A 0.01
PIPE p335 A 0.01
PIPE p336 A 0.01
PIPE p337 A 0.01
PIPE p338 A 0.01
PIPE p339 A 0.01
PIPE p340 A 0.61045
PIPE p341 A 0.79457
PIPE p342 A 0.78437
PIPE p343 A 0.88962
PIPE p344 A 0.66094
PIPE p345 A 0.35379
PIPE p346 A 0.01
PIPE p347 A 0.01
PIPE p348 A 0.01
PIPE p349 A 0.01
PIPE p350 A 0.01
PIPE p351 A 0.01
PIPE p352 A 0.01
PIPE p353 A 0.5413
PIPE p354 A 0.20065
PIPE p355 A 0.46726
PIPE p356 A 0.88078
PIPE p357 A 0.66723
PIPE p358 A 0.42026
PIPE p359 A 0.3884
PIPE p360 A 0.01
PIPE p361 A 0.01
PIPE p362 A 0.01
PIPE p363 A 0.01
PIPE p364 A 0.01
PIPE p365 A 0.01
PIPE p366 A 0.01
PIPE p367 A 0.01
PIPE p368 A 0.01
PIPE p369 A 0.01
PIPE p370 A 0.01
PIPE p371 A 0.01
PIPE p372 A 0.34024
PIPE p373 A 0.44216
PIPE p374 A 0.76067
PIPE p375 A 0.01
PIPE p376 A 0.01
PIPE p377 A 0.01
PIPE p378 A 0.01
PIPE p379 A 0.01
PIPE p380 A 0.01
PIPE p381 A 0.01
PIPE p382 A 0.01
PIPE p383 A 0.01
PIPE p384 A 0.01
PIPE p385 A 0.91024
PIPE p386 A 0.06506
PIPE p387 A 0.01
PIPE p388 A 0.01
PIPE p389 A 0.91706
PIPE p390 A 0.87575
PIPE p391 A 0.01
PIPE p392 A 0.01
PIPE p393 A 0.23676
PIPE p394 A 0.67812
PIPE p395 A 0.01
PIPE p396 A 0.01
PIPE p397 A 0.01
PIPE p398 A 0.01
PIPE p399 A 0.26522
PIPE p400 A 0.75423
PIPE p401 A 0.32591
PIPE p402 A 0.01
PIPE p403 A 0.01
PIPE p404 A 0.11263
PIPE p405 A 0.24874
PIPE p406 A 0.16363
PIPE p407 A 0.51673
PIPE p408 A 0.01
PIPE p409 A 0.01
PIPE p410 A 0.01
PIPE p411 A 0.01
PIPE p412 A 0.01
PIPE p413 A 0.01
PIPE p414 A 0.01
PIPE p415 A 0.01
PIPE p416 A 0.01
PIPE p417 A 0.01
PIPE p418 A 0.01
PIPE p419 A 0.01
PIPE p420 A 0.01
PIPE p421 A 0.01
PIPE p422 A 0.01
PIPE p423 A 0.01
PIPE p424 A 0.01
PIPE p425 A 0.01
PIPE p426 A 0.01
PIPE p427 A 0.01
PIPE p428 A 0.01
PIPE p429 A 0.01
PIPE p430 A 0.01
PIPE p431 A 0.01
PIPE p432 A 0.01
PIPE p433 A 0.01
PIPE p434 A 0.01
PIPE p435 A 0.01
PIPE p436 A 0.01
PIPE p437 A 0.01
PIPE p438 A 0.01
PIPE p439 A 0.01
PIPE p440 A 0.01
PIPE p441 A 0.01
PIPE p442 A 0.01
PIPE p443 A 0.01
PIPE p444 A 0.01
PIPE p445 A 0.01
PIPE p446 A 0.01
PIPE p447 A 0.01
PIPE p448 A 0.01
PIPE p449 A 0.01
PIPE p450 A 0.01
PIPE p451 A 0.01
PIPE p452 A 0.01
PIPE p453 A 0.01
PIPE p454 A 0.01
PIPE p455 A 0.01
PIPE p456 A 0.01
PIPE p457 A 0.01
PIPE p458 A 0.01
PIPE p459 A 0.01
PIPE p460 A 0.01
PIPE p461 A 0.01
PIPE p462 A 0.01
PIPE p463 A 0.01
PIPE p464 A 0.01
PIPE p465 A 0.01
PIPE p466 A 0.01
PIPE p467 A 0.01
PIPE p468 A 0.01
PIPE p469 A 0.01
PIPE p470 A 0.01
PIPE p471 A 0.01
PIPE p472 A 0.01
PIPE p473 A 0.01
PIPE p474 A 0.01
PIPE p475 A 0.01
PIPE p476 A 0.01
PIPE p477 A 0.01
PIPE p478 A 0.01
PIPE p479 A 0.01
PIPE p480 A 0.01
PIPE p481 A 0.01
PIPE p482 A 0.01
PIPE p483 A 0.01
PIPE p484 A 0.01
PIPE p485 A 0.01
PIPE p486 A 0.01
PIPE p487 A 0.01
PIPE p488 A 0.01
PIPE p489 A 0.01
PIPE p490 A 0.01
PIPE p491 A 0.01
PIPE p492 A 0.01
PIPE p493 A 0.01
PIPE p494 A 0.01
PIPE p495 A 0.01
PIPE p496 A 0.01
PIPE p497 A 0.01
PIPE p498 A 0.01
PIPE p499 A 0.01
PIPE p500 A 0.01
PIPE p501 A 0.01
PIPE p502 A 0.01
PIPE p503 A 0.01
PIPE p504 A 0.01
PIPE p505 A 0.01
PIPE p506 A 0.01
PIPE p507 A 0.01
PIPE p508 A 0.01
PIPE p509 A 0.01
PIPE p510 A 0.01
PIPE p511 A 0.01
PIPE p512 A 0.01
PIPE p513 A 0.01
PIPE p514 A 0.01
PIPE p515 A 0.01
PIPE p516 A 0.01
PIPE p517 A 0.01
PIPE p518 A 0.01
PIPE p519 A 0.01
PIPE p520 A 0.01
PIPE p521 A 0.01
PIPE p522 A 0.01
PIPE p523 A 0.01
PIPE p524 A 0.01
PIPE p525 A 0.01
PIPE p526 A 0.01
PIPE p527 A 0.01
PIPE p528 A 0.01
PIPE p529 A 0.01
PIPE p530 A 0.01
PIPE p531 A 0.01
PIPE p532 A 0.70902
PIPE p533 A 0.69706
PIPE p534 A 0.17147
PIPE p535 A 0.01
PIPE p536 A 0.01
PIPE p537 A 0.01
PIPE p538 A 0.01
PIPE p539 A 0.01
PIPE p540 A 0.01
PIPE p541 A 0.01
PIPE p542 A 0.01
PIPE p543 A 0.01
PIPE p544 A 0.01
PIPE p545 A 0.01
PIPE p546 A 0.01
PIPE p547 A 0.07333
PIPE p548 A 0.42109
PIPE p549 A 0.01
PIPE p550 A 0.01
PIPE p551 A 0.01
PIPE p552 A 0.01
PIPE p553 A 0.01
PIPE p554 A 0.01
PIPE p555 A 0.01
PIPE p556 A 0.01
PIPE p557 A 0.01
PIPE p558 A 0.01
PIPE p559 A 0.01
PIPE p560 A 0.01
PIPE p561 A 0.01
PIPE p562 A 0.01
PIPE p563 A 0.01
PIPE p564 A 0.01
PIPE p565 A 0.01
PIPE p566 A 0.01
PIPE p567 A 0.01
PIPE p568 A 0.01
PIPE p569 A 0.01
PIPE p570 A 0.01
PIPE p571 A 0.01
PIPE p572 A 0.01
PIPE p573 A 0.01
PIPE p574 A 0.01
PIPE p575 A 0.01
PIPE p576 A 0.01
PIPE p577 A 0.01
PIPE p578 A 0.01
PIPE p579 A 0.01
PIPE p580 A 0.01
PIPE p581 A 0.01
PIPE p582 A 0.01
PIPE p583 A 0.01
PIPE p584 A 0.01
PIPE p585 A 0.01
PIPE p586 A 0.01
PIPE p587 A 0.01
PIPE p588 A 0.01
PIPE p589 A 0.01
PIPE p590 A 0.01
PIPE p591 A 0.01
PIPE p592 A 0.01
PIPE p593 A 0.01
PIPE p594 A 0.01
PIPE p595 A 0.01
PIPE p596 A 0.01
PIPE p597 A 0.01
PIPE p598 A 0.01
PIPE p599 A 0.01
PIPE p600 A 0.01
PIPE p601 A 0.01
PIPE p602 A 0.01
PIPE p603 A 0.01
PIPE p604 A 0.01
PIPE p605 A 0.01
PIPE p606 A 0.01
PIPE p607 A 0.01
PIPE p608 A 0.01
PIPE p609 A 0.01
PIPE p610 A 0.01
PIPE p611 A 0.01
PIPE p612 A 0.01
PIPE p613 A 0.01
PIPE p614 A 0.01
PIPE p615 A 0.01
PIPE p616 A 0.01
PIPE p617 A 0.01
PIPE p618 A 0.01
PIPE p619 A 0.01
PIPE p620 A 0.01
PIPE p621 A 0.01
PIPE p622 A 0.01
PIPE p623 A 0.01
PIPE p624 A 0.01
PIPE p625 A 0.01
PIPE p626 A 0.01
PIPE p627 A 0.01
PIPE p628 A 0.01
PIPE p629 A 0.01
PIPE p630 A 0.01
PIPE p631 A 0.01
PIPE p632 A 0.01
PIPE p633 A 0.01
PIPE p634 A 0.01
PIPE p635 A 0.01
PIPE p636 A 0.01
PIPE p637 A 0.01
PIPE p638 A 0.01
PIPE p639 A 0.01
PIPE p640 A 0.01
PIPE p641 A 0.01
PIPE p642 A 0.01
PIPE p643 A 0.01
PIPE p644 A 0.01
PIPE p645 A 0.01
PIPE p646 A 0.01
PIPE p647 A 0.01
PIPE p648 A 0.01
PIPE p649 A 0.01
PIPE p650 A 0.01
PIPE p651 A 0.01
PIPE p652 A 0.01
PIPE p653 A 0.01
PIPE p654 A 0.01
PIPE p655 A 0.01
PIPE p656 A 0.01
PIPE p657 A 0.01
PIPE p658 A 0.01
PIPE p659 A 0.01
PIPE p660 A 0.01
PIPE p661 A 0.01
PIPE p662 A 0.01
PIPE p663 A 0.01
PIPE p664 A 0.01
PIPE p665 A 0.01
PIPE p666 A 0.01
PIPE p667 A 0.01
PIPE p668 A 0.01
PIPE p669 A 0.01
PIPE p670 A 0.01
PIPE p671 A 0.01
PIPE p672 A 0.01
PIPE p673 A 0.39472
PIPE p674 A 0.1328
PIPE p675 A 0.74414
PIPE p676 A 0.044714
PIPE p677 A 0.7606
PIPE p678 A 0.4552
PIPE p679 A 0.94598
PIPE p680 A 0.22481
PIPE p681 A 0.01
PIPE p682 A 0.01
PIPE p683 A 0.01
PIPE p684 A 0.01
PIPE p685 A 0.01
PIPE p686 A 0.01
PIPE p687 A 0.01
PIPE p688 A 0.01
PIPE p689 A 0.01
PIPE p690 A 0.01
PIPE p691 A 0.01
PIPE p692 A 0.01
PIPE p693 A 0.01
PIPE p694 A 0.01
PIPE p695 A 0.01
PIPE p696 A 0.01
PIPE p697 A 0.01
PIPE p698 A 0.01
PIPE p699 A 0.01
PIPE p700 A 0.01
PIPE p701 A 0.01
PIPE p702 A 0.01
PIPE p703 A 0.01
PIPE p704 A 0.01
PIPE p705 A 0.01
PIPE p706 A 0.01
PIPE p707 A 0.01
PIPE p708 A 0.01
PIPE p709 A 0.01
PIPE p710 A 0.01
PIPE p711 A 0.01
PIPE p712 A 0.01
PIPE p713 A 0.01
PIPE p714 A 0.01
PIPE p715 A 0.01
PIPE p716 A 0.01
PIPE p717 A 0.01
PIPE p718 A 0.01
PIPE p719 A 0.01
PIPE p720 A 0.01
PIPE p721 A 0.01
PIPE p722 A 0.01
PIPE p723 A 0.01
PIPE p724 A 0.01
PIPE p725 A 0.01
PIPE p726 A 0.01
PIPE p727 A 0.01
PIPE p728 A 0.01
PIPE p729 A 0.01
PIPE p730 A 0.01
PIPE p731 A 0.01
PIPE p732 A 0.01
PIPE p733 A 0.01
PIPE p734 A 0.01
PIPE p735 A 0.01
PIPE p736 A 0.01
PIPE p737 A 0.48218
PIPE p738 A 0.60398
PIPE p739 A 0.01
PIPE p740 A 0.01
PIPE p741 A 0.01
PIPE p742 A 0.01
PIPE p743 A 0.01
PIPE p744 A 0.01
PIPE p745 A 0.01
PIPE p746 A 0.01
PIPE p747 A 0.01
PIPE p748 A 0.01
PIPE p749 A 0.01
PIPE p750 A 0.01
PIPE p751 A 0.01
PIPE p752 A 0.01
PIPE p753 A 0.01
PIPE p754 A 0.01
PIPE p755 A 0.01
PIPE p756 A 0.01
PIPE p757 A 0.01
PIPE p758 A 0.01
PIPE p759 A 0.01
PIPE p760 A 0.01
PIPE p761 A 0.01
PIPE p762 A 0.01
PIPE p763 A 0.01
PIPE p764 A 0.01
PIPE p765 A 0.01
PIPE p766 A 0.01
PIPE p767 A 0.01
PIPE p768 A 0.01
PIPE p769 A 0.01
PIPE p770 A 0.01
PIPE p771 A 0.01
PIPE p772 A 0.01
PIPE p773 A 0.01
PIPE p774 A 0.01
PIPE p775 A 0.01
PIPE p776 A 0.01
PIPE p777 A 0.01
PIPE p778 A 0.01
PIPE p779 A 0.01
PIPE p780 A 0.01
PIPE p781 A 0.01
PIPE p782 A 0.01
PIPE p783 A 0.01
PIPE p784 A 0.01
PIPE p785 A 0.01
PIPE p786 A 0.01
PIPE p787 A 0.01
PIPE p788 A 0.38697
PIPE p789 A 0.91068
PIPE p790 A 0.11771
PIPE p791 A 0.01
PIPE p792 A 0.01
PIPE p793 A 0.01
PIPE p794 A 0.01
PIPE p795 A 0.01
PIPE p796 A 0.01
PIPE p797 A 0.01
PIPE p798 A 0.01
PIPE p799 A 0.046952
PIPE p800 A 0.18703
PIPE p801 A 0.72115
PIPE p802 A 0.49089
PIPE p803 A 0.34148
PIPE p804 A 0.98172
PIPE p805 A 0.58882
PIPE p806 A 0.01
PIPE p807 A 0.01
PIPE p808 A 0.01
PIPE p809 A 0.01
PIPE p810 A 0.01
PIPE p811 A 0.01
PIPE p812 A 0.063001
PIPE p813 A 0.39008
PIPE p814 A 0.21936
PIPE p815 A 0.041078
PIPE p816 A 0.35453
PIPE p817 A 0.77547
PIPE p818 A 0.3192
PIPE p819 A 0.33865
PIPE p820 A 0.6746
PIPE p821 A 0.98415
PIPE p822 A 0.01
PIPE p823 A 0.01
PIPE p824 A 0.01
PIPE p825 A 0.01
PIPE p826 A 0.01
PIPE p827 A 0.01
PIPE p828 A 0.01
PIPE p829 A 0.01
PIPE p830 A 0.01
PIPE p831 A 0.01
PIPE p832 A 0.01
PIPE p833 A 0.01
PIPE p834 A 0.0072228
PIPE p835 A 0.19576
PIPE p836 A 0.2409
PIPE p837 A 0.70779
PIPE p838 A 0.60645
PIPE p839 A 0.01
PIPE p840 A 0.01
PIPE p841 A 0.01
PIPE p842 A 0.01
PIPE p843 A 0.01
PIPE p844 A 0.01
PIPE p845 A 0.01
PIPE p846 A 0.01
PIPE p847 A 0.01
PIPE p848 A 0.01
PIPE p849 A 0.01
PIPE p850 A 0.01
PIPE p851 A 0.01
PIPE p852 A 0.01
PIPE p853 A 0.01
PIPE p854 A 0.01
PIPE p855 A 0.01
PIPE p856 A 0.01
PIPE p857 A 0.01
PIPE p858 A 0.01
PIPE p859 A 0.01
PIPE p860 A 0.01
PIPE p861 A 0.01
PIPE p862 A 0.01
PIPE p863 A 0.01
PIPE p864 A 0.01
PIPE p865 A 0.97201
PIPE p866 A 0.91601
PIPE p867 A 0.01
PIPE p868 A 0.01
PIPE p869 A 0.01
PIPE p870 A 0.01
PIPE p871 A 0.01
PIPE p872 A 0.01
PIPE p873 A 0.01
PIPE p874 A 0.01
PIPE p875 A 0.01
PIPE p876 A 0.01
PIPE p877 A 0.01
PIPE p878 A 0.01
PIPE p879 A 0.01
PIPE p880 A 0.01
PIPE p881 A 0.01
PIPE p882 A 0.01
PIPE p883 A 0.01
PIPE p884 A 0.01
PIPE p885 A 0.01
PIPE p886 A 0.01
PIPE p887 A 0.01
PIPE p888 A 0.01
PIPE p889 A 0.01
PIPE p890 A 0.01
PIPE p891 A 0.01
PIPE p892 A 0.01
PIPE p893 A 0.01
PIPE p894 A 0.01
PIPE p895 A 0.01
PIPE p896 A 0.01
PIPE p897 A 0.01
PIPE p898 A 0.01
PIPE p899 A 0.01
PIPE p900 A 0.01
PIPE p901 A 0.01
PIPE p902 A 0.01
PIPE p903 A 0.01
PIPE p904 A 0.01
PIPE p905 A 0.01
PIPE PUMP_1 A 0.67989
PIPE PRV-1 A 0.11025
PIPE PRV-2 A 0.85939
PIPE PRV-3 A 0.40622
PIPE p1 B 14
PIPE p2 B 14
PIPE p3 B 14
PIPE p4 B 14
PIPE p5 B 14
PIPE p6 B 14
PIPE p7 B 14
PIPE p8 B 14
PIPE p9 B 14
PIPE p10 B 14
PIPE p11 B 14
PIPE p12 B 14
PIPE p13 B 14
PIPE p14 B 14
PIPE p15 B 14
PIPE p16 B 14
PIPE p17 B 14
PIPE p18 B 14
PIPE p19 B 14
PIPE p20 B 14
PIPE p21 B 14
PIPE p22 B 14
PIPE p23 B 14
PIPE p24 B 14
PIPE p25 B 14
PIPE p26 B 14
PIPE p27 B 14
PIPE p28 B 14
PIPE p29 B 14
PIPE p30 B 14
PIPE p31 B 14
PIPE p32 B 14
PIPE p33 B 14
PIPE p34 B 14
PIPE p35 B 14
PIPE p36 B 14
PIPE p37 B 14
PIPE p38 B 14
PIPE p39 B 14
PIPE p40 B 14
PIPE p41 B 14
PIPE p42 B 14
PIPE p43 B 14
PIPE p44 B 14
PIPE p45 B 14
PIPE p46 B 14
PIPE p47 B 14
PIPE p48 B 14
PIPE p49 B 14
PIPE p50 B 14
PIPE p51 B 14
PIPE p52 B 14
PIPE p53 B 14
PIPE p54 B 14
PIPE p55 B 14
PIPE p56 B 14
PIPE p57 B 14
PIPE p58 B 14
PIPE p59 B 14
PIPE p60 B 14
PIPE p61 B 14
PIPE p62 B 14
PIPE p63 B 14
PIPE p64 B 14
PIPE p65 B 14
PIPE p66 B 14
PIPE p67 B 14
PIPE p68 B 14
PIPE p69 B 14
PIPE p70 B 14
PIPE p71 B 14
PIPE p72 B 14
PIPE p73 B 14
PIPE p74 B 14
PIPE p75 B 14
PIPE p76 B 14
PIPE p77 B 14
PIPE p78 B 14
PIPE p79 B 14
PIPE p80 B 14
PIPE p81 B 14
PIPE p82 B 14
PIPE p83 B 14
PIPE p84 B 14
PIPE p85 B 14
PIPE p86 B 14
PIPE p87 B 14
PIPE p88 B 14
PIPE p89 B 14
PIPE p90 B 14
PIPE p91 B 14
PIPE p92 B 14
PIPE p93 B 14
PIPE p94 B 14
PIPE p95 B 14
PIPE p96 B 14
PIPE p97 B 14
PIPE p98 B 14
PIPE p99 B 14
PIPE p100 B 14
PIPE p101 B 14
PIPE p102 B 14
PIPE p103 B 14
PIPE p104 B 14
PIPE p105 B 14
PIPE p106 B 14
PIPE p107 B 14
PIPE p108 B 14
PIPE p109 B 14
PIPE p110 B 14
PIPE p111 B 14
PIPE p112 B 14
PIPE p113 B 14
PIPE p114 B 14
PIPE p115 B 14
PIPE p116 B 14
PIPE p117 B 14
PIPE p118 B 14
PIPE p119 B 14
PIPE p120 B 14
PIPE p121 B 14
PIPE p122 B 14
PIPE p123 B 14
PIPE p124 B 14
PIPE p125 B 14
PIPE p126 B 14
PIPE p127 B 14
PIPE p128 B 14
PIPE p129 B 14
PIPE p130 B 14
PIPE p131 B 14
PIPE p132 B 14
PIPE p133 B 14
PIPE p134 B 14
PIPE p135 B 14
PIPE p136 B 14
PIPE p137 B 14
PIPE p138 B 14
PIPE p139 B 14
PIPE p140 B 14
PIPE p141 B 14
PIPE p142 B 14
PIPE p143 B 14
PIPE p144 B 14
PIPE p145 B 14
PIPE p146 B 14
PIPE p147 B 14
PIPE p148 B 14
PIPE p149 B 14
PIPE p150 B 14
PIPE p151 B 14
PIPE p152 B 14
PIPE p153 B 14
PIPE p154 B 14
PIPE p155 B 14
PIPE p156 B 14
PIPE p157 B 14
PIPE p158 B 14
PIPE p159 B 14
PIPE p160 B 14
PIPE p161 B 14
PIPE p162 B 14
PIPE p163 B 14
PIPE p164 B 14
PIPE p165 B 14
PIPE p166 B 14
PIPE p167 B 14
PIPE p168 B 14
PIPE p169 B 14
PIPE p170 B 14
PIPE p171 B 14
PIPE p172 B 14
PIPE p173 B 14
PIPE p174 B 14
PIPE p175 B 14
PIPE p176 B 14
PIPE p177 B 14
PIPE p178 B 14
PIPE p179 B 14
PIPE p180 B 14
PIPE p181 B 14
PIPE p182 B 14
PIPE p183 B 14
PIPE p184 B 14
PIPE p185 B 14
PIPE p186 B 14
PIPE p187 B 14
PIPE p188 B 14
PIPE p189 B 14
PIPE p190 B 14
PIPE p191 B 14
PIPE p192 B 14
PIPE p193 B 14
PIPE p194 B 14
PIPE p195 B 14
PIPE p196 B 14
PIPE p197 B 14
PIPE p198 B 14
PIPE p199 B 14
PIPE p200 B 14
PIPE p201 B 14
PIPE p202 B 14
PIPE p203 B 14
PIPE p204 B 14
PIPE p205 B 14
PIPE p206 B 14
PIPE p207 B 14
PIPE p208 B 14
PIPE p209 B 14
PIPE p210 B 14
PIPE p211 B 14
PIPE p212 B 14
PIPE p213 B 14
PIPE p214 B 14
PIPE p215 B 14
PIPE p216 B 14
PIPE p217 B 14
PIPE p218 B 14
PIPE p219 B 14
PIPE p220 B 14
PIPE p221 B 14
PIPE p222 B 14
PIPE p223 B 14
PIPE p224 B 14
PIPE p225 B 14
PIPE p226 B 14
PIPE p227 B 14
PIPE p228 B 14
PIPE p229 B 14
PIPE p230 B 14
PIPE p231 B 14
PIPE p232 B 14
PIPE p233 B 14
PIPE p234 B 14
PIPE p235 B 14
PIPE p236 B 14
PIPE p237 B 14
PIPE p238 B 14
PIPE p239 B 14
PIPE p240 B 14
PIPE p241 B 14
PIPE p242 B 14
PIPE p243 B 14
PIPE p244 B 14
PIPE p245 B 14
PIPE p246 B 14
PIPE p247 B 14
PIPE p248 B 14
PIPE p249 B 14
PIPE p250 B 14
PIPE p251 B 14
PIPE p252 B 14
PIPE p253 B 14
PIPE p254 B 14
PIPE p255 B 14
PIPE p256 B 14
PIPE p257 B 14
PIPE p258 B 14
PIPE p259 B 14
PIPE p260 B 14
PIPE p261 B 14
PIPE p262 B 14
PIPE p263 B 14
PIPE p264 B 14
PIPE p265 B 14
PIPE p266 B 14
PIPE p267 B 14
PIPE p268 B 14
PIPE p269 B 14
PIPE p270 B 14
PIPE p271 B 14
PIPE p272 B 14
PIPE p273 B 14
PIPE p274 B 14
PIPE p275 B 14
PIPE p276 B 14
PIPE p277 B 14
PIPE p278 B 14
PIPE p279 B 14
PIPE p280 B 14
PIPE p281 B 14
PIPE p282 B 14
PIPE p283 B 14
PIPE p284 B 14
PIPE p285 B 14
PIPE p286 B 14
PIPE p287 B 14
PIPE p288 B 14
PIPE p289 B 14
PIPE p290 B 14
PIPE p291 B 14
PIPE p292 B 14
PIPE p293 B 14
PIPE p294 B 14
PIPE p295 B 14
PIPE p296 B 14
PIPE p297 B 14
PIPE p298 B 14
PIPE p299 B 14
PIPE p300 B 14
PIPE p301 B 14
PIPE p302 B 14
PIPE p303 B 14
PIPE p304 B 14
PIPE p305 B 14
PIPE p306 B 14
PIPE p307 B 14
PIPE p308 B 14
PIPE p309 B 14
PIPE p310 B 14
PIPE p311 B 14
PIPE p312 B 14
PIPE p313 B 14
PIPE p314 B 14
PIPE p315 B 14
PIPE p316 B 14
PIPE p317 B 14
PIPE p318 B 14
PIPE p319 B 14
PIPE p320 B 14
PIPE p321 B 14
PIPE p322 B 14
PIPE p323 B 14
PIPE p324 B 14
PIPE p325 B 14
PIPE p326 B 14
PIPE p327 B 14
PIPE p328 B 14
PIPE p329 B 14
PIPE p330 B 14
PIPE p331 B 14
PIPE p332 B 14
PIPE p333 B 14
PIPE p334 B 14
PIPE p335 B 14
PIPE p336 B 14
PIPE p337 B 14
PIPE p338 B 14
PIPE p339 B 14
PIPE p340 B 14
PIPE p341 B 14
PIPE p342 B 14
PIPE p343 B 14
PIPE p344 B 14
PIPE p345 B 14
PIPE p346 B 14
PIPE p347 B 14
PIPE p348 B 14
PIPE p349 B 14
PIPE p350 B 14
PIPE p351 B 14
PIPE p352 B 14
PIPE p353 B 14
PIPE p354 B 14
PIPE p355 B 14
PIPE p356 B 14
PIPE p357 B 14
PIPE p358 B 14
PIPE p359 B 14
PIPE p360 B 14
PIPE p361 B 14
PIPE p362 B 14
PIPE p363 B 14
PIPE p364 B 14
PIPE p365 B 14
PIPE p366 B 14
PIPE p367 B 14
PIPE p368 B 14
PIPE p369 B 14
PIPE p370 B 14
PIPE p371 B 14
PIPE p372 B 14
PIPE p373 B 14
PIPE p374 B 14
PIPE p375 B 14
PIPE p376 B 14
PIPE p377 B 14
PIPE p378 B 14
PIPE p379 B 14
PIPE p380 B 14
PIPE p381 B 14
PIPE p382 B 14
PIPE p383 B 14
PIPE p384 B 14
PIPE p385 B 14
PIPE p386 B 14
PIPE p387 B 14
PIPE p388 B 14
PIPE p389 B 14
PIPE p390 B 14
PIPE p391 B 14
PIPE p392 B 14
PIPE p393 B 14
PIPE p394 B 14
PIPE p395 B 14
PIPE p396 B 14
PIPE p397 B 14
PIPE p398 B 14
PIPE p399 B 14
PIPE p400 B 14
PIPE p401 B 14
PIPE p402 B 14
PIPE p403 B 14
PIPE p404 B 14
PIPE p405 B 14
PIPE p406 B 14
PIPE p407 B 14
PIPE p408 B 14
PIPE p409 B 14
PIPE p410 B 14
PIPE p411 B 14
PIPE p412 B 14
PIPE p413 B 14
PIPE p414 B 14
PIPE p415 B 14
PIPE p416 B 14
PIPE p417 B 14
PIPE p418 B 14
PIPE p419 B 14
PIPE p420 B 14
PIPE p421 B 14
PIPE p422 B 14
PIPE p423 B 14
PIPE p424 B 14
PIPE p425 B 14
PIPE p426 B 14
PIPE p427 B 14
PIPE p428 B 14
PIPE p429 B 14
PIPE p430 B 14
PIPE p431 B 14
PIPE p432 B 14
PIPE p433 B 14
PIPE p434 B 14
PIPE p435 B 14
PIPE p436 B 14
PIPE p437 B 14
PIPE p438 B 14
PIPE p439 B 14
PIPE p440 B 14
PIPE p441 B 14
PIPE p442 B 14
PIPE p443 B 14
PIPE p444 B 14
PIPE p445 B 14
PIPE p446 B 14
PIPE p447 B 14
PIPE p448 B 14
PIPE p449 B 14
PIPE p450 B 14
PIPE p451 B 14
PIPE p452 B 14
PIPE p453 B 14
PIPE p454 B 14
PIPE p455 B 14
PIPE p456 B 14
PIPE p457 B 14
PIPE p458 B 14
PIPE p459 B 14
PIPE p460 B 14
PIPE p461 B 14
PIPE p462 B 14
PIPE p463 B 14
PIPE p464 B 14
PIPE p465 B 14
PIPE p466 B 14
PIPE p467 B 14
PIPE p468 B 14
PIPE p469 B 14
PIPE p470 B 14
PIPE p471 B 14
PIPE p472 B 14
PIPE p473 B 14
PIPE p474 B 14
PIPE p475 B 14
PIPE p476 B 14
PIPE p477 B 14
PIPE p478 B 14
PIPE p479 B 14
PIPE p480 B 14
PIPE p481 B 14
PIPE p482 B 14
PIPE p483 B 14
PIPE p484 B 14
PIPE p485 B 14
PIPE p486 B 14
PIPE p487 B 14
PIPE p488 B 14
PIPE p489 B 14
PIPE p490 B 14
PIPE p491 B 14
PIPE p492 B 14
PIPE p493 B 14
PIPE p494 B 14
PIPE p495 B 14
PIPE p496 B 14
PIPE p497 B 14
PIPE p498 B 14
PIPE p499 B 14
PIPE p500 B 14
PIPE p501 B 14
PIPE p502 B 14
PIPE p503 B 14
PIPE p504 B 14
PIPE p505 B 14
PIPE p506 B 14
PIPE p507 B 14
PIPE p508 B 14
PIPE p509 B 14
PIPE p510 B 14
PIPE p511 B 14
PIPE p512 B 14
PIPE p513 B 14
PIPE p514 B 14
PIPE p515 B 14
PIPE p516 B 14
PIPE p517 B 14
PIPE p518 B 14
PIPE p519 B 14
PIPE p520 B 14
PIPE p521 B 14
PIPE p522 B 14
PIPE p523 B 14
PIPE p524 B 14
PIPE p525 B 14
PIPE p526 B 14
PIPE p527 B 14
PIPE p528 B 14
PIPE p529 B 14
PIPE p530 B 14
PIPE p531 B 14
PIPE p532 B 14
PIPE p533 B 14
PIPE p534 B 14
PIPE p535 B 14
PIPE p536 B 14
PIPE p537 B 14
PIPE p538 B 14
PIPE p539 B 14
PIPE p540 B 14
PIPE p541 B 14
PIPE p542 B 14
PIPE p543 B 14
PIPE p544 B 14
PIPE p545 B 14
PIPE p546 B 14
PIPE p547 B 14
PIPE p548 B 14
PIPE p549 B 14
PIPE p550 B 14
PIPE p551 B 14
PIPE p552 B 14
PIPE p553 B 14
PIPE p554 B 14
PIPE p555 B 14
PIPE p556 B 14
PIPE p557 B 14
PIPE p558 B 14
PIPE p559 B 14
PIPE p560 B 14
PIPE p561 B 14
PIPE p562 B 14
PIPE p563 B 14
PIPE p564 B 14
PIPE p565 B 14
PIPE p566 B 14
PIPE p567 B 14
PIPE p568 B 14
PIPE p569 B 14
PIPE p570 B 14
PIPE p571 B 14
PIPE p572 B 14
PIPE p573 B 14
PIPE p574 B 14
PIPE p575 B 14
PIPE p576 B 14
PIPE p577 B 14
PIPE p578 B 14
PIPE p579 B 14
PIPE p580 B 14
PIPE p581 B 14
PIPE p582 B 14
PIPE p583 B 14
PIPE p584 B 14
PIPE p585 B 14
PIPE p586 B 14
PIPE p587 B 14
PIPE p588 B 14
PIPE p589 B 14
PIPE p590 B 14
PIPE p591 B 14
PIPE p592 B 14
PIPE p593 B 14
PIPE p594 B 14
PIPE p595 B 14
PIPE p596 B 14
PIPE p597 B 14
PIPE p598 B 14
PIPE p599 B 14
PIPE p600 B 14
PIPE p601 B 14
PIPE p602 B 14
PIPE p603 B 14
PIPE p604 B 14
PIPE p605 B 14
PIPE p606 B 14
PIPE p607 B 14
PIPE p608 B 14
PIPE p609 B 14
PIPE p610 B 14
PIPE p611 B 14
PIPE p612 B 14
PIPE p613 B 14
PIPE p614 B 14
PIPE p615 B 14
PIPE p616 B 14
PIPE p617 B 14
PIPE p618 B 14
PIPE p619 B 14
PIPE p620 B 14
PIPE p621 B 14
PIPE p622 B 14
PIPE p623 B 14
PIPE p624 B 14
PIPE p625 B 14
PIPE p626 B 14
PIPE p627 B 14
PIPE p628 B 14
PIPE p629 B 14
PIPE p630 B 14
PIPE p631 B 14
PIPE p632 B 14
PIPE p633 B 14
PIPE p634 B 14
PIPE p635 B 14
PIPE p636 B 14
PIPE p637 B 14
PIPE p638 B 14
PIPE p639 B 14
PIPE p640 B 14
PIPE p641 B 14
PIPE p642 B 14
PIPE p643 B 14
PIPE p644 B 14
PIPE p645 B 14
PIPE p646 B 14
PIPE p647 B 14
PIPE p648 B 14
PIPE p649 B 14
PIPE p650 B 14
PIPE p651 B 14
PIPE p652 B 14
PIPE p653 B 14
PIPE p654 B 14
PIPE p655 B 14
PIPE p656 B 14
PIPE p657 B 14
PIPE p658 B 14
PIPE p659 B 14
PIPE p660 B 14
PIPE p661 B 14
PIPE p662 B 14
PIPE p663 B 14
PIPE p664 B 14
PIPE p665 B 14
PIPE p666 B 14
PIPE p667 B 14
PIPE p668 B 14
PIPE p669 B 14
PIPE p670 B 14
PIPE p671 B 14
PIPE p672 B 14
PIPE p673 B 14
PIPE p674 B 14
PIPE p675 B 14
PIPE p676 B 14
PIPE p677 B 14
PIPE p678 B 14
PIPE p679 B 14
PIPE p680 B 14
PIPE p681 B 14
PIPE p682 B 14
PIPE p683 B 14
PIPE p684 B 14
PIPE p685 B 14
PIPE p686 B 14
PIPE p687 B 14
PIPE p688 B 14
PIPE p689 B 14
PIPE p690 B 14
PIPE p691 B 14
PIPE p692 B 14
PIPE p693 B 14
PIPE p694 B 14
PIPE p695 B 14
PIPE p696 B 14
PIPE p697 B 14
PIPE p698 B 14
PIPE p699 B 14
PIPE p700 B 14
PIPE p701 B 14
PIPE p702 B 14
PIPE p703 B 14
PIPE p704 B 14
PIPE p705 B 14
PIPE p706 B 14
PIPE p707 B 14
PIPE p708 B 14
PIPE p709 B 14
PIPE p710 B 14
PIPE p711 B 14
PIPE p712 B 14
PIPE p713 B 14
PIPE p714 B 14
PIPE p715 B 14
PIPE p716 B 14
PIPE p717 B 14
PIPE p718 B 14
PIPE p719 B 14
PIPE p720 B 14
PIPE p721 B 14
PIPE p722 B 14
PIPE p723 B 14
PIPE p724 B 14
PIPE p725 B 14
PIPE p726 B 14
PIPE p727 B 14
PIPE p728 B 14
PIPE p729 B 14
PIPE p730 B 14
PIPE p731 B 14
PIPE p732 B 14
PIPE p733 B 14
PIPE p734 B 14
PIPE p735 B 14
PIPE p736 B 14
PIPE p737 B 14
PIPE p738 B 14
PIPE p739 B 14
PIPE p740 B 14
PIPE p741 B 14
PIPE p742 B 14
PIPE p743 B 14
PIPE p744 B 14
PIPE p745 B 14
PIPE p746 B 14
PIPE p747 B 14
PIPE p748 B 14
PIPE p749 B 14
PIPE p750 B 14
PIPE p751 B 14
PIPE p752 B 14
PIPE p753 B 14
PIPE p754 B 14
PIPE p755 B 14
PIPE p756 B 14
PIPE p757 B 14
PIPE p758 B 14
PIPE p759 B 14
PIPE p760 B 14
PIPE p761 B 14
PIPE p762 B 14
PIPE p763 B 14
PIPE p764 B 14
PIPE p765 B 14
PIPE p766 B 14
PIPE p767 B 14
PIPE p768 B 14
PIPE p769 B 14
PIPE p770 B 14
PIPE p771 B 14
PIPE p772 B 14
PIPE p773 B 14
PIPE p774 B 14
PIPE p775 B 14
PIPE p776 B 14
PIPE p777 B 14
PIPE p778 B 14
PIPE p779 B 14
PIPE p780 B 14
PIPE p781 B 14
PIPE p782 B 14
PIPE p783 B 14
PIPE p784 B 14
PIPE p785 B 14
PIPE p786 B 14
PIPE p787 B 14
PIPE p788 B 14
PIPE p789 B 14
PIPE p790 B 14
PIPE p791 B 14
PIPE p792 B 14
PIPE p793 B 14
PIPE p794 B 14
PIPE p795 B 14
PIPE p796 B 14
PIPE p797 B 14
PIPE p798 B 14
PIPE p799 B 14
PIPE p800 B 14
PIPE p801 B 14
PIPE p802 B 14
PIPE p803 B 14
PIPE p804 B 14
PIPE p805 B 14
PIPE p806 B 14
PIPE p807 B 14
PIPE p808 B 14
PIPE p809 B 14
PIPE p810 B 14
PIPE p811 B 14
PIPE p812 B 14
PIPE p813 B 14
PIPE p814 B 14
PIPE p815 B 14
PIPE p816 B 14
PIPE p817 B 14
PIPE p818 B 14
PIPE p819 B 14
PIPE p820 B 14
PIPE p821 B 14
PIPE p822 B 14
PIPE p823 B 14
PIPE p824 B 14
PIPE p825 B 14
PIPE p826 B 14
PIPE p827 B 14
PIPE p828 B 14
PIPE p829 B 14
PIPE p830 B 14
PIPE p831 B 14
PIPE p832 B 14
PIPE p833 B 14
PIPE p834 B 14
PIPE p835 B 14
PIPE p836 B 14
PIPE p837 B 14
PIPE p838 B 14
PIPE p839 B 14
PIPE p840 B 14
PIPE p841 B 14
PIPE p842 B 14
PIPE p843 B 14
PIPE p844 B 14
PIPE p845 B 14
PIPE p846 B 14
PIPE p847 B 14
PIPE p848 B 14
PIPE p849 B 14
PIPE p850 B 14
PIPE p851 B 14
PIPE p852 B 14
PIPE p853 B 14
PIPE p854 B 14
PIPE p855 B 14
PIPE p856 B 14
PIPE p857 B 14
PIPE p858 B 14
PIPE p859 B 14
PIPE p860 B 14
PIPE p861 B 14
PIPE p862 B 14
PIPE p863 B 14
PIPE p864 B 14
PIPE p865 B 14
PIPE p866 B 14
PIPE p867 B 14
PIPE p868 B 14
PIPE p869 B 14
PIPE p870 B 14
PIPE p871 B 14
PIPE p872 B 14
PIPE p873 B 14
PIPE p874 B 14
PIPE p875 B 14
PIPE p876 B 14
PIPE p877 B 14
PIPE p878 B 14
PIPE p879 B 14
PIPE p880 B 14
PIPE p881 B 14
PIPE p882 B 14
PIPE p883 B 14
PIPE p884 B 14
PIPE p885 B 14
PIPE p886 B 14
PIPE p887 B 14
PIPE p888 B 14
PIPE p889 B 14
PIPE p890 B 14
PIPE p891 B 14
PIPE p892 B 14
PIPE p893 B 14
PIPE p894 B 14
PIPE p895 B 14
PIPE p896 B 14
PIPE p897 B 14
PIPE p898 B 14
PIPE p899 B 14
PIPE p900 B 14
PIPE p901 B 14
PIPE p902 B 14
PIPE p903 B 14
PIPE p904 B 14